Version 4
SHEET 1 880 680
WIRE 256 16 128 16
WIRE 512 16 256 16
WIRE 672 16 512 16
WIRE 128 64 128 16
WIRE 256 64 256 16
WIRE -128 128 -272 128
WIRE 128 128 -48 128
WIRE 672 128 672 16
WIRE 512 144 512 16
WIRE 256 176 256 128
WIRE 256 176 -32 176
WIRE 128 192 128 128
WIRE 256 192 256 176
WIRE -32 208 -32 176
WIRE -32 208 -272 208
WIRE -32 272 -32 208
WIRE 128 304 128 256
WIRE 256 304 256 256
WIRE 256 304 128 304
WIRE 512 304 512 208
WIRE 512 304 256 304
WIRE 672 304 672 208
WIRE 672 304 512 304
FLAG -32 272 0
SYMBOL diode 144 128 R180
WINDOW 0 24 64 Left 2
WINDOW 3 24 0 Left 2
SYMATTR InstName D1
SYMATTR Value 1N914
SYMBOL diode 272 128 R180
WINDOW 0 24 64 Left 2
WINDOW 3 24 0 Left 2
SYMATTR InstName D2
SYMATTR Value 1N914
SYMBOL diode 144 256 R180
WINDOW 0 24 64 Left 2
WINDOW 3 24 0 Left 2
SYMATTR InstName D3
SYMATTR Value 1N914
SYMBOL diode 272 256 R180
WINDOW 0 24 64 Left 2
WINDOW 3 24 0 Left 2
SYMATTR InstName D4
SYMATTR Value 1N914
SYMBOL res 656 112 R0
SYMATTR InstName R1
SYMATTR Value 100
SYMATTR SpiceLine tol=1 pwr=0.1
SYMBOL voltage -272 112 R0
WINDOW 123 0 0 Left 0
WINDOW 39 24 124 Left 2
SYMATTR InstName V1
SYMATTR Value SINE(0 10 50)
SYMBOL res -32 112 R90
WINDOW 0 0 56 VBottom 2
WINDOW 3 32 56 VTop 2
SYMATTR InstName R2
SYMATTR Value 2
SYMBOL cap 496 144 R0
SYMATTR InstName C2
SYMATTR Value 470µ
TEXT 232 384 Left 2 !.tran 0.1u 100m
