Version 4
SHEET 1 880 680
SYMBOL op\\op 112 48 R0
SYMATTR InstName X1
