Version 4
SHEET 1 880 680
WIRE 160 64 96 64
WIRE 240 160 160 160
WIRE 160 256 96 256
FLAG 96 64 1
FLAG 240 160 2
FLAG 96 256 3
SYMBOL res 144 48 R0
SYMATTR InstName R1
SYMATTR Value {x1}
SYMBOL res 144 144 R0
SYMATTR InstName R2
SYMATTR Value {x2}
TEXT 256 80 Left 2 !.param x1 = R*(1-(val/100))
TEXT 256 112 Left 2 !.param x2 = R*(val/100)
